*----------------------------------------------------------------------
* SPICE Model generated by Murata Manufacturing Co., Ltd.
* Copyright(C) Murata Manufacturing Co., Ltd.
* Description :2012/X7R/0.1uF/100V
* Murata P/N :GRM21BR72A104KAC4
* Property : C = 0.1[uF]
*----------------------------------------------------------------------
* Applicable Conditions:
*   Frequency Range = 100000Hz-6000000000Hz
*   Temperature = 25 degC
*   DC Bias Voltage = 0V
*   Small Signal Operation
*----------------------------------------------------------------------
.SUBCKT GRM21BR72A104KAC4 port1 port2
C1 port1 11 9.99e-8
L2 11 12 1.68e-10
R3 12 13 1.50e-2
C4 13 14 1.05e-5
R4 13 14 8.46e-1
C5 14 15 4.07e-5
R5 14 15 2.68e-1
C6 15 16 8.37e-6
R6 15 16 1.75e-1
C7 16 17 6.83e-6
R7 16 17 2.60e-2
C8 17 18 1.67e-5
R8 17 18 1.57e-3
L9 18 19 1.07e-10
R9 18 19 8.48e-2
L10 19 20 1.24e-11
R10 19 20 6.15e-2
C11 20 21 4.33e-7
L11 20 21 3.43e-11
R11 20 21 3.68e-2
C12 21 22 9.55e-8
L12 21 22 6.46e-11
R12 21 22 4.77e-2
C13 22 23 8.92e-12
L13 22 23 8.71e-11
R13 22 23 9.68
C14 23 port2 3.01e-12
L14 23 port2 1.23e-10
R14 23 port2 20.6
R100 port1 11 5.00e+9
.ENDS GRM21BR72A104KAC4