Version 4
SHEET 1 880 680
WIRE 208 32 96 32
WIRE 528 32 400 32
WIRE 96 128 96 32
WIRE 160 128 96 128
WIRE 192 128 160 128
WIRE 272 128 256 128
WIRE 384 128 352 128
WIRE 496 128 464 128
WIRE 528 128 528 32
WIRE 528 128 496 128
WIRE 96 144 96 128
WIRE 528 224 528 128
WIRE 160 240 160 128
WIRE 272 240 160 240
WIRE 496 240 496 128
WIRE 496 240 352 240
WIRE 160 352 160 240
WIRE 176 352 160 352
WIRE 368 352 256 352
WIRE 496 352 496 240
WIRE 496 352 432 352
FLAG 96 224 0
FLAG 528 224 0
SYMBOL voltage 96 128 M0
WINDOW 123 24 124 Left 2
WINDOW 39 0 0 Left 2
SYMATTR Value2 AC 1
SYMATTR InstName V1
SYMATTR Value ""
SYMBOL AutoGenerated\\GRM31MR71H105KA88 304 32 R0
SYMATTR InstName U1
SYMBOL cap 192 144 R270
WINDOW 0 32 32 VTop 2
WINDOW 3 0 32 VBottom 2
SYMATTR InstName C1
SYMATTR Value 1µF
SYMBOL ind 368 144 R270
WINDOW 0 32 56 VTop 2
WINDOW 3 5 56 VBottom 2
SYMATTR InstName L1
SYMATTR Value 1nH
SYMBOL res 256 144 R270
WINDOW 0 32 56 VTop 2
WINDOW 3 0 56 VBottom 2
SYMATTR InstName R1
SYMATTR Value 10m
SYMBOL res 256 256 R270
WINDOW 0 32 56 VTop 2
WINDOW 3 0 56 VBottom 2
SYMATTR InstName R2
SYMATTR Value .5G
SYMBOL res 160 368 R270
WINDOW 0 32 56 VTop 2
WINDOW 3 0 56 VBottom 2
SYMATTR InstName R3
SYMATTR Value 100Meg
SYMBOL cap 368 368 R270
WINDOW 0 32 32 VTop 2
WINDOW 3 0 32 VBottom 2
SYMATTR InstName C2
SYMATTR Value 100µF
TEXT 224 408 Left 2 !.ac dec 100 100 1G
