*--------------------------------------------------------------------
* SPICE Model generated by Murata Manufacturing Co., Ltd.
* Copyright(C) Murata Manufacturing Co., Ltd.
* Description :3216/X7R/1uF/50V
* Murata P/N :GRM31MR71H105KA88
* Property : C = 1[uF]
*--------------------------------------------------------------------
* Applicable Conditions:
*   Frequency Range = 100Hz-6000000000Hz
*   Temperature = 25 degC
*   DC Bias Voltage = 0V
*   Small Signal Operation
*--------------------------------------------------------------------
.SUBCKT GRM31MR71H105KA88 port1 port2
C1 port1 11 1.00e-6
L2 11 12 2.82e-11
R3 12 13 6.65e-3
C4 13 14 1.53e-4
R4 13 14 22.8
C5 14 15 2.02e-4
R5 14 15 1.85
C6 15 16 1.51e-4
R6 15 16 3.53e-1
C7 16 17 1.60e-4
R7 16 17 6.68e-2
C8 17 18 9.85e-5
R8 17 18 1.80e-2
C9 18 19 1.20e-4
R9 18 19 2.94e-3
L10 19 20 3.24e-11
R10 19 20 1.02e-1
L11 20 21 1.94e-10
R11 20 21 3.05e-2
L12 21 22 4.09e-11
R12 21 22 2.85e-2
C13 22 23 5.18e-6
L13 22 23 3.93e-11
R13 22 23 1.00e-2
C14 23 24 9.49e-7
L14 23 24 8.93e-11
R14 23 24 1.68e-2
C15 24 25 1.33e-11
L15 24 25 9.25e-11
R15 24 25 6.24
C16 25 port2 1.03e-12
L16 25 port2 3.80e-10
R16 25 port2 171
R100 port1 11 5.00e+8
.ENDS GRM31MR71H105KA88
