Version 4
SHEET 1 880 680
WIRE 160 240 64 240
WIRE 432 240 352 240
WIRE 432 320 432 240
FLAG 64 320 0
FLAG 432 320 0
SYMBOL AutoGenerated\\GRM31MR71H105KA88 256 240 R0
SYMATTR InstName U1
SYMBOL voltage 64 224 M0
WINDOW 123 24 124 Left 2
WINDOW 39 0 0 Left 2
SYMATTR Value2 AC 1
SYMATTR InstName V1
SYMATTR Value SINE(0 1 1k)
TEXT -120 368 Left 2 !.ac dec 100 100 1000Meg
