Version 4
SHEET 1 880 680
WIRE 192 32 96 32
FLAG 96 112 0
FLAG 192 96 0
SYMBOL voltage 96 16 M0
WINDOW 123 24 124 Left 2
WINDOW 39 0 0 Left 2
SYMATTR InstName V1
SYMATTR Value ""
SYMATTR Value2 AC 1
SYMBOL cap 176 32 R0
SYMATTR InstName C1
SYMATTR Value 1µF
TEXT 78 156 Left 2 !.ac dec 10 1 10Meg
