Version 4
SHEET 1 880 680
WIRE 112 128 64 128
WIRE 208 128 192 128
WIRE 272 208 272 128
WIRE 272 208 64 208
WIRE 64 224 64 208
FLAG 64 224 0
SYMBOL cap 208 144 R270
WINDOW 0 32 32 VTop 2
WINDOW 3 -25 32 VTop 2
SYMATTR InstName C1
SYMATTR Value 1µF
SYMBOL ind 96 144 R270
WINDOW 0 32 56 VTop 2
WINDOW 3 -25 55 VTop 2
SYMATTR InstName L1
SYMATTR Value 1mH
SYMBOL voltage 64 112 M0
WINDOW 123 24 124 Left 2
WINDOW 39 0 0 Left 2
SYMATTR InstName V1
SYMATTR Value ""
SYMATTR Value2 AC 1
