Version 4
SHEET 1 880 680
WIRE 64 128 64 80
WIRE 144 128 144 80
WIRE 160 128 160 80
WIRE 160 128 144 128
WIRE 224 128 224 80
WIRE 64 160 64 128
WIRE 144 240 64 240
WIRE 224 240 224 128
WIRE 224 240 144 240
WIRE 144 256 144 240
FLAG 144 256 0
FLAG 64 80 ESR+
FLAG 144 80 ESR-
FLAG 160 80 C+
FLAG 224 80 C-
SYMBOL cap 160 144 R270
WINDOW 0 32 32 VTop 2
WINDOW 3 -30 33 VTop 2
SYMATTR InstName C
SYMATTR Value 1µF
SYMBOL res 48 144 R270
WINDOW 0 32 56 VTop 2
WINDOW 3 -29 56 VTop 2
SYMATTR InstName ESR
SYMATTR Value 10
SYMBOL voltage 64 144 M0
WINDOW 123 24 124 Left 2
WINDOW 39 0 0 Left 2
SYMATTR InstName V1
SYMATTR Value ""
SYMATTR Value2 AC 1
TEXT -22 288 Left 2 !.ac dec 100 1 10Meg
