Version 4
SHEET 1 880 680
WIRE 240 144 176 144
WIRE 352 144 352 112
WIRE 352 144 320 144
WIRE 352 224 352 208
FLAG 176 224 0
FLAG 352 224 0
FLAG 352 112 Vout
SYMBOL voltage 176 128 M0
WINDOW 123 22 109 Left 2
WINDOW 39 0 0 Left 2
SYMATTR InstName V1
SYMATTR Value ""
SYMATTR Value2 AC 1
SYMBOL res 224 160 R270
WINDOW 0 32 56 VTop 2
WINDOW 3 0 56 VBottom 2
SYMATTR InstName R1
SYMATTR Value 1k
SYMBOL cap 336 144 R0
SYMATTR InstName C1
SYMATTR Value {C}
TEXT 98 280 Left 2 !.ac dec 100 1 10k
TEXT 96 304 Left 2 !.step param C LIST 1u 10u 100u
